Maraviroc
  -OEChem-06292011182D

 40 44  0     1  0  0  0  0  0999 V2000
   -1.0330   -1.9165    0.0000 C   0  0  0  0  0  0  0  0  0  0  0  0
   -0.0419   -1.7835    0.0000 C   0  0  0  0  0  0  0  0  0  0  0  0
    0.6485   -2.5091    0.0000 N   0  0  0  0  0  0  0  0  0  0  0  0
    1.5538   -2.0736    0.0000 N   0  0  0  0  0  0  0  0  0  0  0  0
    1.4161   -1.0827    0.0000 C   0  0  0  0  0  0  0  0  0  0  0  0
    0.4327   -0.9015    0.0000 N   0  0  0  0  0  0  0  0  0  0  0  0
    0.0000    0.0000    0.0000 C   0  0  0  0  0  0  0  0  0  0  0  0
   -0.3508    1.7098    0.0000 C   0  0  0  0  0  0  0  0  0  0  0  0
   -1.6002    2.4331    0.0000 C   0  0  1  0  0  0  0  0  0  0  0  0
   -0.8062    3.0410    0.0000 H   0  0  0  0  0  0  0  0  0  0  0  0
   -3.2953    1.6952    0.0000 C   0  0  0  0  0  0  0  0  0  0  0  0
   -3.6680    0.7672    0.0000 C   0  0  0  0  0  0  0  0  0  0  0  0
   -2.1336    1.3957    0.0000 C   0  0  1  0  0  0  0  0  0  0  0  0
   -2.0901    0.3966    0.0000 H   0  0  0  0  0  0  0  0  0  0  0  0
   -0.8184    0.9864    0.0000 C   0  0  0  0  0  0  0  0  0  0  0  0
   -1.9728    3.8288    0.0000 N   0  0  0  0  0  0  0  0  0  0  0  0
   -2.0701    4.8241    0.0000 C   0  0  0  0  0  0  0  0  0  0  0  0
   -2.9807    5.2374    0.0000 C   0  0  0  0  0  0  0  0  0  0  0  0
   -3.0779    6.2327    0.0000 C   0  0  1  0  0  0  0  0  0  0  0  0
   -3.1752    7.2279    0.0000 H   0  0  0  0  0  0  0  0  0  0  0  0
   -4.0732    6.1354    0.0000 C   0  0  0  0  0  0  0  0  0  0  0  0
   -4.4860    5.2189    0.0000 C   0  0  0  0  0  0  0  0  0  0  0  0
   -5.4813    5.1215    0.0000 C   0  0  0  0  0  0  0  0  0  0  0  0
   -6.0680    5.9314    0.0000 C   0  0  0  0  0  0  0  0  0  0  0  0
   -5.6551    6.8479    0.0000 C   0  0  0  0  0  0  0  0  0  0  0  0
   -4.6557    6.9546    0.0000 C   0  0  0  0  0  0  0  0  0  0  0  0
   -2.0827    6.3300    0.0000 N   0  0  0  0  0  0  0  0  0  0  0  0
   -1.6693    7.2405    0.0000 C   0  0  0  0  0  0  0  0  0  0  0  0
   -2.2512    8.0538    0.0000 O   0  0  0  0  0  0  0  0  0  0  0  0
   -0.6741    7.3378    0.0000 C   0  0  0  0  0  0  0  0  0  0  0  0
   -0.0910    6.5254    0.0000 C   0  0  0  0  0  0  0  0  0  0  0  0
    0.9047    6.6183    0.0000 C   0  0  0  0  0  0  0  0  0  0  0  0
    1.3216    7.5330    0.0000 C   0  0  0  0  0  0  0  0  0  0  0  0
    0.7427    8.3548    0.0000 C   0  0  0  0  0  0  0  0  0  0  0  0
   -0.2572    8.2525    0.0000 C   0  0  0  0  0  0  0  0  0  0  0  0
    2.0253    8.2435    0.0000 F   0  0  0  0  0  0  0  0  0  0  0  0
    2.1446    6.9650    0.0000 F   0  0  0  0  0  0  0  0  0  0  0  0
    2.1386   -0.3913    0.0000 C   0  0  0  0  0  0  0  0  0  0  0  0
    1.9011    0.5801    0.0000 C   0  0  0  0  0  0  0  0  0  0  0  0
    3.0986   -0.6714    0.0000 C   0  0  0  0  0  0  0  0  0  0  0  0
  1  2  1  0  0  0  0
  2  6  1  0  0  0  0
  2  3  2  0  0  0  0
  3  4  1  0  0  0  0
  4  5  2  0  0  0  0
  5  6  1  0  0  0  0
  6  7  1  0  0  0  0
  7 15  1  0  0  0  0
  7  8  1  0  0  0  0
  8  9  1  0  0  0  0
  9 10  1  6  0  0  0
  9 16  1  0  0  0  0
  9 11  1  0  0  0  0
 11 12  1  0  0  0  0
 12 13  1  0  0  0  0
 13 14  1  1  0  0  0
 13 15  1  0  0  0  0
 13 16  1  0  0  0  0
 16 17  1  0  0  0  0
 17 18  1  0  0  0  0
 18 19  1  0  0  0  0
 19 20  1  6  0  0  0
 19 21  1  0  0  0  0
 21 26  2  0  0  0  0
 21 22  1  0  0  0  0
 22 23  2  0  0  0  0
 23 24  1  0  0  0  0
 24 25  2  0  0  0  0
 25 26  1  0  0  0  0
 19 27  1  0  0  0  0
 27 28  1  0  0  0  0
 28 29  2  0  0  0  0
 28 30  1  0  0  0  0
 30 35  1  0  0  0  0
 30 31  1  0  0  0  0
 31 32  1  0  0  0  0
 32 33  1  0  0  0  0
 33 34  1  0  0  0  0
 34 35  1  0  0  0  0
 33 36  1  0  0  0  0
 33 37  1  0  0  0  0
  5 38  1  0  0  0  0
 38 39  1  0  0  0  0
 38 40  1  0  0  0  0
M  END
$$$$
Cefazolin
  -OEChem-06292011182D

 31 34  0     1  0  0  0  0  0999 V2000
    5.1759   -0.7426    0.0000 C   0  0  0  0  0  0  0  0  0  0  0  0
    4.1811   -0.8438    0.0000 C   0  0  0  0  0  0  0  0  0  0  0  0
    3.6765   -1.7090    0.0000 N   0  0  0  0  0  0  0  0  0  0  0  0
    2.6973   -1.4989    0.0000 N   0  0  0  0  0  0  0  0  0  0  0  0
    2.5973   -0.5040    0.0000 C   0  0  0  0  0  0  0  0  0  0  0  0
    3.5106   -0.0957    0.0000 S   0  0  0  0  0  0  0  0  0  0  0  0
    1.7320   -0.0026    0.0000 S   0  0  0  0  0  0  0  0  0  0  0  0
    0.8653   -0.5013    0.0000 C   0  0  0  0  0  0  0  0  0  0  0  0
    0.0000    0.0000    0.0000 C   0  0  0  0  0  0  0  0  0  0  0  0
   -0.8716   -0.4998    0.0000 C   0  0  0  0  0  0  0  0  0  0  0  0
   -1.7375    0.0003    0.0000 N   0  0  0  0  0  0  0  0  0  0  0  0
   -1.7374    1.0058    0.0000 C   0  0  1  0  0  0  0  0  0  0  0  0
   -0.8702    0.5078    0.0000 H   0  0  0  0  0  0  0  0  0  0  0  0
   -2.7429    1.0058    0.0000 C   0  0  1  0  0  0  0  0  0  0  0  0
   -3.7429    1.0058    0.0000 H   0  0  0  0  0  0  0  0  0  0  0  0
   -2.7429    0.0003    0.0000 C   0  0  0  0  0  0  0  0  0  0  0  0
   -3.4500   -0.7068    0.0000 O   0  0  0  0  0  0  0  0  0  0  0  0
   -2.7429    2.0058    0.0000 N   0  0  0  0  0  0  0  0  0  0  0  0
   -3.6089    2.5058    0.0000 C   0  0  0  0  0  0  0  0  0  0  0  0
   -4.4750    2.0058    0.0000 O   0  0  0  0  0  0  0  0  0  0  0  0
   -3.6089    3.5058    0.0000 C   0  0  0  0  0  0  0  0  0  0  0  0
   -4.4750    4.0058    0.0000 N   0  0  0  0  0  0  0  0  0  0  0  0
   -4.5814    5.0005    0.0000 C   0  0  0  0  0  0  0  0  0  0  0  0
   -5.5586    5.2125    0.0000 N   0  0  0  0  0  0  0  0  0  0  0  0
   -6.0607    4.3459    0.0000 N   0  0  0  0  0  0  0  0  0  0  0  0
   -5.3935    3.5990    0.0000 N   0  0  0  0  0  0  0  0  0  0  0  0
   -0.8713    1.5112    0.0000 S   0  0  0  0  0  0  0  0  0  0  0  0
    0.0001    1.0055    0.0000 C   0  0  0  0  0  0  0  0  0  0  0  0
   -0.8731   -1.4998    0.0000 C   0  0  0  0  0  0  0  0  0  0  0  0
   -1.7399   -1.9985    0.0000 O   0  0  0  0  0  0  0  0  0  0  0  0
   -0.0079   -2.0011    0.0000 O   0  0  0  0  0  0  0  0  0  0  0  0
  1  2  1  0  0  0  0
  2  6  1  0  0  0  0
  2  3  2  0  0  0  0
  3  4  1  0  0  0  0
  4  5  2  0  0  0  0
  5  6  1  0  0  0  0
  5  7  1  0  0  0  0
  7  8  1  0  0  0  0
  8  9  1  0  0  0  0
  9 28  1  0  0  0  0
  9 10  2  0  0  0  0
 10 11  1  0  0  0  0
 11 16  1  0  0  0  0
 11 12  1  0  0  0  0
 12 13  1  6  0  0  0
 12 14  1  0  0  0  0
 14 15  1  6  0  0  0
 14 16  1  0  0  0  0
 16 17  2  0  0  0  0
 14 18  1  0  0  0  0
 18 19  1  0  0  0  0
 19 20  2  0  0  0  0
 19 21  1  0  0  0  0
 21 22  1  0  0  0  0
 22 26  1  0  0  0  0
 22 23  1  0  0  0  0
 23 24  2  0  0  0  0
 24 25  1  0  0  0  0
 25 26  2  0  0  0  0
 12 27  1  0  0  0  0
 27 28  1  0  0  0  0
 10 29  1  0  0  0  0
 29 30  2  0  0  0  0
 29 31  1  0  0  0  0
M  END
$$$$
Sunitinib Malate
  -OEChem-06292011182D

 29 31  0     0  0  0  0  0  0999 V2000
    7.1339   -8.1090    0.0000 C   0  0  0  0  0  0  0  0  0  0  0  0
    6.4649   -7.3658    0.0000 C   0  0  0  0  0  0  0  0  0  0  0  0
    6.7741   -6.4148    0.0000 N   0  0  0  0  0  0  0  0  0  0  0  0
    7.7522   -6.2070    0.0000 C   0  0  0  0  0  0  0  0  0  0  0  0
    8.4213   -6.9502    0.0000 C   0  0  0  0  0  0  0  0  0  0  0  0
    6.1050   -5.6715    0.0000 C   0  0  0  0  0  0  0  0  0  0  0  0
    6.4142   -4.7205    0.0000 C   0  0  0  0  0  0  0  0  0  0  0  0
    5.7452   -3.9773    0.0000 N   0  0  0  0  0  0  0  0  0  0  0  0
    6.0543   -3.0263    0.0000 C   0  0  0  0  0  0  0  0  0  0  0  0
    7.0325   -2.8185    0.0000 O   0  0  0  0  0  0  0  0  0  0  0  0
    5.3853   -2.2830    0.0000 C   0  0  0  0  0  0  0  0  0  0  0  0
    4.3892   -2.3862    0.0000 C   0  0  0  0  0  0  0  0  0  0  0  0
    3.9809   -1.4715    0.0000 C   0  0  0  0  0  0  0  0  0  0  0  0
    4.7282   -0.8000    0.0000 N   0  0  0  0  0  0  0  0  0  0  0  0
    5.5921   -1.3046    0.0000 C   0  0  0  0  0  0  0  0  0  0  0  0
    6.5064   -0.8996    0.0000 C   0  0  0  0  0  0  0  0  0  0  0  0
    3.0028   -1.2636    0.0000 C   0  0  0  0  0  0  0  0  0  0  0  0
    2.6938   -0.3125    0.0000 C   0  0  0  0  0  0  0  0  0  0  0  0
    1.7360   -0.0012    0.0000 C   0  0  0  0  0  0  0  0  0  0  0  0
    0.8680   -0.4978    0.0000 C   0  0  0  0  0  0  0  0  0  0  0  0
    0.0000    0.0000    0.0000 C   0  0  0  0  0  0  0  0  0  0  0  0
    0.0000    1.0058    0.0000 C   0  0  0  0  0  0  0  0  0  0  0  0
    0.8680    1.5138    0.0000 C   0  0  0  0  0  0  0  0  0  0  0  0
    1.7360    1.0058    0.0000 C   0  0  0  0  0  0  0  0  0  0  0  0
    2.6938    1.3169    0.0000 N   0  0  0  0  0  0  0  0  0  0  0  0
    3.2858    0.5023    0.0000 C   0  0  0  0  0  0  0  0  0  0  0  0
    4.2858    0.5024    0.0000 O   0  0  0  0  0  0  0  0  0  0  0  0
   -0.8653   -0.5013    0.0000 F   0  0  0  0  0  0  0  0  0  0  0  0
    3.8889   -3.2521    0.0000 C   0  0  0  0  0  0  0  0  0  0  0  0
  1  2  1  0  0  0  0
  2  3  1  0  0  0  0
  3  4  1  0  0  0  0
  4  5  1  0  0  0  0
  3  6  1  0  0  0  0
  6  7  1  0  0  0  0
  7  8  1  0  0  0  0
  8  9  1  0  0  0  0
  9 10  2  0  0  0  0
  9 11  1  0  0  0  0
 11 15  2  0  0  0  0
 11 12  1  0  0  0  0
 12 13  2  0  0  0  0
 13 14  1  0  0  0  0
 14 15  1  0  0  0  0
 15 16  1  0  0  0  0
 13 17  1  0  0  0  0
 17 18  2  0  0  0  0
 18 26  1  0  0  0  0
 18 19  1  0  0  0  0
 19 24  2  0  0  0  0
 19 20  1  0  0  0  0
 20 21  2  0  0  0  0
 21 22  1  0  0  0  0
 22 23  2  0  0  0  0
 23 24  1  0  0  0  0
 24 25  1  0  0  0  0
 25 26  1  0  0  0  0
 26 27  2  0  0  0  0
 21 28  1  0  0  0  0
 12 29  1  0  0  0  0
M  END
$$$$
Capecitabine
  -OEChem-06292011182D

 29 30  0     1  0  0  0  0  0999 V2000
   -2.5966   -6.4975    0.0000 C   0  0  0  0  0  0  0  0  0  0  0  0
   -1.7306   -5.9975    0.0000 C   0  0  0  0  0  0  0  0  0  0  0  0
   -1.7306   -4.9975    0.0000 C   0  0  0  0  0  0  0  0  0  0  0  0
   -0.8646   -4.4975    0.0000 C   0  0  0  0  0  0  0  0  0  0  0  0
   -0.8646   -3.4975    0.0000 C   0  0  0  0  0  0  0  0  0  0  0  0
    0.0015   -2.9975    0.0000 O   0  0  0  0  0  0  0  0  0  0  0  0
    0.0015   -1.9975    0.0000 C   0  0  0  0  0  0  0  0  0  0  0  0
   -0.8646   -1.4975    0.0000 O   0  0  0  0  0  0  0  0  0  0  0  0
    0.8675   -1.4975    0.0000 N   0  0  0  0  0  0  0  0  0  0  0  0
    0.8675   -0.4975    0.0000 C   0  0  0  0  0  0  0  0  0  0  0  0
    0.0000    0.0000    0.0000 C   0  0  0  0  0  0  0  0  0  0  0  0
   -0.0000    1.0052    0.0000 C   0  0  0  0  0  0  0  0  0  0  0  0
    0.8675    1.5129    0.0000 N   0  0  0  0  0  0  0  0  0  0  0  0
    1.7350    1.0052    0.0000 C   0  0  0  0  0  0  0  0  0  0  0  0
    2.6025    1.5026    0.0000 O   0  0  0  0  0  0  0  0  0  0  0  0
    1.7350    0.0000    0.0000 N   0  0  0  0  0  0  0  0  0  0  0  0
    0.8675    2.5129    0.0000 C   0  0  1  0  0  0  0  0  0  0  0  0
   -0.8725    2.3264    0.0000 H   0  0  0  0  0  0  0  0  0  0  0  0
    0.6556    3.4902    0.0000 C   0  0  1  0  0  0  0  0  0  0  0  0
   -0.0600    5.0872    0.0000 H   0  0  0  0  0  0  0  0  0  0  0  0
    1.5221    3.9922    0.0000 C   0  0  1  0  0  0  0  0  0  0  0  0
    2.2632    4.6636    0.0000 H   0  0  0  0  0  0  0  0  0  0  0  0
    2.2691    3.3249    0.0000 C   0  0  2  0  0  0  0  0  0  0  0  0
    2.8543    4.1358    0.0000 H   0  0  0  0  0  0  0  0  0  0  0  0
    1.8622    2.4063    0.0000 O   0  0  0  0  0  0  0  0  0  0  0  0
    3.1364    2.8271    0.0000 C   0  0  0  0  0  0  0  0  0  0  0  0
    0.9325    4.7999    0.0000 O   0  0  0  0  0  0  0  0  0  0  0  0
   -0.2945    3.1781    0.0000 O   0  0  0  0  0  0  0  0  0  0  0  0
   -0.8653   -0.5013    0.0000 F   0  0  0  0  0  0  0  0  0  0  0  0
  1  2  1  0  0  0  0
  2  3  1  0  0  0  0
  3  4  1  0  0  0  0
  4  5  1  0  0  0  0
  5  6  1  0  0  0  0
  6  7  1  0  0  0  0
  7  8  2  0  0  0  0
  7  9  1  0  0  0  0
  9 10  1  0  0  0  0
 10 16  2  0  0  0  0
 10 11  1  0  0  0  0
 11 12  2  0  0  0  0
 12 13  1  0  0  0  0
 13 14  1  0  0  0  0
 14 15  2  0  0  0  0
 14 16  1  0  0  0  0
 13 17  1  0  0  0  0
 17 18  1  6  0  0  0
 17 25  1  0  0  0  0
 17 19  1  0  0  0  0
 19 20  1  1  0  0  0
 19 21  1  0  0  0  0
 21 22  1  1  0  0  0
 21 23  1  0  0  0  0
 23 24  1  6  0  0  0
 23 25  1  0  0  0  0
 23 26  1  0  0  0  0
 21 27  1  0  0  0  0
 19 28  1  0  0  0  0
 11 29  1  0  0  0  0
M  END
$$$$
Amisulpride
  -OEChem-06292011182D

 25 26  0     1  0  0  0  0  0999 V2000
   -0.3675    3.0415    0.0000 C   0  0  0  0  0  0  0  0  0  0  0  0
    0.4993    2.5428    0.0000 C   0  0  0  0  0  0  0  0  0  0  0  0
    0.5008    1.5428    0.0000 N   0  0  3  0  0  0  0  0  0  0  0  0
   -0.3065    0.9519    0.0000 C   0  0  0  0  0  0  0  0  0  0  0  0
    0.0000    0.0000    0.0000 C   0  0  0  0  0  0  0  0  0  0  0  0
    1.0015    0.0000    0.0000 C   0  0  0  0  0  0  0  0  0  0  0  0
    1.3133    0.9519    0.0000 C   0  0  3  0  0  0  0  0  0  0  0  0
    2.2648    1.2596    0.0000 C   0  0  0  0  0  0  0  0  0  0  0  0
    2.4741    2.2374    0.0000 N   0  0  0  0  0  0  0  0  0  0  0  0
    3.4256    2.5451    0.0000 C   0  0  0  0  0  0  0  0  0  0  0  0
    4.1678    1.8749    0.0000 O   0  0  0  0  0  0  0  0  0  0  0  0
    3.6349    3.5229    0.0000 C   0  0  0  0  0  0  0  0  0  0  0  0
    4.5860    3.8320    0.0000 C   0  0  0  0  0  0  0  0  0  0  0  0
    4.7996    4.8089    0.0000 C   0  0  0  0  0  0  0  0  0  0  0  0
    4.0545    5.4837    0.0000 C   0  0  0  0  0  0  0  0  0  0  0  0
    3.0958    5.1815    0.0000 C   0  0  0  0  0  0  0  0  0  0  0  0
    2.8898    4.1977    0.0000 C   0  0  0  0  0  0  0  0  0  0  0  0
    1.9388    3.8886    0.0000 O   0  0  0  0  0  0  0  0  0  0  0  0
    1.7310    2.9104    0.0000 C   0  0  0  0  0  0  0  0  0  0  0  0
    4.2681    6.4606    0.0000 N   0  0  0  0  0  0  0  0  0  0  0  0
    5.7519    5.1138    0.0000 S   0  0  0  0  0  0  0  0  0  0  0  0
    5.4470    6.0662    0.0000 O   0  0  0  0  0  0  0  0  0  0  0  0
    6.0568    4.1614    0.0000 O   0  0  0  0  0  0  0  0  0  0  0  0
    6.7043    5.4187    0.0000 C   0  0  0  0  0  0  0  0  0  0  0  0
    6.9165    6.3960    0.0000 C   0  0  0  0  0  0  0  0  0  0  0  0
  1  2  1  0  0  0  0
  2  3  1  0  0  0  0
  3  7  1  0  0  0  0
  3  4  1  0  0  0  0
  4  5  1  0  0  0  0
  5  6  1  0  0  0  0
  6  7  1  0  0  0  0
  7  8  1  0  0  0  0
  8  9  1  0  0  0  0
  9 10  1  0  0  0  0
 10 11  2  0  0  0  0
 10 12  1  0  0  0  0
 12 17  2  0  0  0  0
 12 13  1  0  0  0  0
 13 14  2  0  0  0  0
 14 15  1  0  0  0  0
 15 16  2  0  0  0  0
 16 17  1  0  0  0  0
 17 18  1  0  0  0  0
 18 19  1  0  0  0  0
 15 20  1  0  0  0  0
 14 21  1  0  0  0  0
 21 22  2  0  0  0  0
 21 23  2  0  0  0  0
 21 24  1  0  0  0  0
 24 25  1  0  0  0  0
M  END
$$$$
Chlorpropamide
  -OEChem-06292011182D

 17 17  0     0  0  0  0  0  0999 V2000
    2.2324    1.1326    0.0000 O   0  0  0  0  0  0  0  0  0  0  0  0
    1.7350    2.0001    0.0000 S   0  0  0  0  0  0  0  0  0  0  0  0
    1.2376    2.8676    0.0000 O   0  0  0  0  0  0  0  0  0  0  0  0
    0.8675    1.5027    0.0000 C   0  0  0  0  0  0  0  0  0  0  0  0
    0.8675    0.4975    0.0000 C   0  0  0  0  0  0  0  0  0  0  0  0
    0.0000    0.0000    0.0000 C   0  0  0  0  0  0  0  0  0  0  0  0
   -0.8675    0.4975    0.0000 C   0  0  0  0  0  0  0  0  0  0  0  0
   -1.7328   -0.0038    0.0000 Cl  0  0  0  0  0  0  0  0  0  0  0  0
   -0.8675    1.5027    0.0000 C   0  0  0  0  0  0  0  0  0  0  0  0
    0.0000    2.0104    0.0000 C   0  0  0  0  0  0  0  0  0  0  0  0
    2.6025    2.4976    0.0000 N   0  0  0  0  0  0  0  0  0  0  0  0
    2.6054    3.4976    0.0000 C   0  0  0  0  0  0  0  0  0  0  0  0
    1.7409    4.0001    0.0000 O   0  0  0  0  0  0  0  0  0  0  0  0
    3.4729    3.9950    0.0000 N   0  0  0  0  0  0  0  0  0  0  0  0
    3.4759    4.9950    0.0000 C   0  0  0  0  0  0  0  0  0  0  0  0
    4.3434    5.4925    0.0000 C   0  0  0  0  0  0  0  0  0  0  0  0
    4.3463    6.4925    0.0000 C   0  0  0  0  0  0  0  0  0  0  0  0
  1  2  2  0  0  0  0
  2  3  2  0  0  0  0
  2  4  1  0  0  0  0
  4 10  2  0  0  0  0
  4  5  1  0  0  0  0
  5  6  2  0  0  0  0
  6  7  1  0  0  0  0
  7  8  1  0  0  0  0
  7  9  2  0  0  0  0
  9 10  1  0  0  0  0
  2 11  1  0  0  0  0
 11 12  1  0  0  0  0
 12 13  2  0  0  0  0
 12 14  1  0  0  0  0
 14 15  1  0  0  0  0
 15 16  1  0  0  0  0
 16 17  1  0  0  0  0
M  END
$$$$
